8
ethane -78.30558
C  0.000000000  0.000000000  0.769840240 
C  0.000000000  0.000000000 -0.769840240
H  0.889464378  0.513532519  1.134849072 
H  0.000000000 -1.027065039  1.134849072 
H -0.889464378  0.513532519  1.134849072
H  0.889464376 -0.513532519 -1.134849072 
H  0.000000000  1.027065039 -1.134849072
H -0.889464378 -0.513532519 -1.134849072
