7
allene -114.41785
C  0.000000000  0.000000000  1.319869695 
C  0.000000000  0.000000000  0.000000000 
C  0.000000000  0.000000000 -1.319869695 
H  0.661453817 -0.661453617  1.860074122 
H -0.661453817  0.661453817  1.860074122 
H  0.661453817  0.661453817 -1.860074122 
H -0.661453817 -0.661453817 -1.860074122 
