12
benzene -227.89094
C -1.207353269 -0.697065746  0.000000000 
C -1.207353289  0.697065746  0.000000000 
C  0.000000000  1.394131493  0.000000000 
C  1.207353289  0.697065746  0.000000000 
C  1.207353289 -0.697065746  0.000000000  
C  0.000000000 -1.394131493  0.000000000 
H -2.142871219 -1.237187275  0.000000000 
H -2.142871219  1.237187275  0.000000000 
H  0.000000000  2.474374550  0.000000000 
H  2.142871219  1.237187275  0.000000000 
H  2.142871219 -1.237187275  0.000000000 
H  0.000000000 -2.474374550  0.000000000 

