9
ethanol -152.12856
O -1.478326321 -0.500692546  0.000000000
C -0.063638784 -0.519197047  0.000000000
C  0.530017138  0.864553273  0.000000000 
H  1.628722668  0.766807675  0.000000000
H  0.315937519 -1.048587799  0.895933270
H  0.315937519 -1.048587799 -0.895933270
H  0.264915824  1.464335799  0.884778798
H  0.264915824  1.464335799 -0.884778798
H -1.778481364 -1.442967296  0.000000000
