9
disilyl-ether -648.56352
O   0.000000000  0.000000000  0.470001018
Si  0.000000000 -1.606773059  0.034772480
Si  0.000000000  1.606773059  0.034772480
H   1.123390239 -1.896967585 -0.715831390
H  -1.123390239 -1.896967585 -0.715831390
H   0.000000000 -2.406468872  1.161889792
H   1.123390239  1.896967585 -0.715831390
H   0.000000000  2.406468872  1.161889792
H  -1.123390239  1.896967585 -0.715831390










