18
1,3,5-trisilacyclohexane -976.11784
C   0.877420766  1.519737346 -0.347383318
Si  1.757126107  0.000000000  0.264640565
C   0.877420766 -1.519737346 -0.347383318
Si -0.878563053 -1.521715846  0.264640565
C  -1.754841531  0.000000000 -0.347383318
Si -0.878563053  1.521715846  0.264640565
H   1.390155232  2.407819493  0.024081722
H   0.882721103  1.528917799 -1.437647520
H   3.146575676  0.000000000 -0.247855944
H   1.778816132  0.000000000  1.744164496
H   1.390155232 -2.407819493  0.024081722
H   0.882721103 -1.528917799 -1.437647520
H  -0.889408066 -1.540499959  1.744164496
H  -1.573287838 -2.725014470 -0.247855944
H  -1.765442205  0.000000000 -1.437647520
H  -2.780310464  0.000000000  0.024081722
H  -1.573287838  2.725014470 -0.247855944
H  -0.889408066  1.540499959  1.744164496

