12
1,3-difluorobenzene -422.80927
C -1.203662514  0.000000000  0.715897074
C -1.203693178  0.000000000 -0.674095587
C  0.000000000  0.000000000 -1.369128912
C  1.203693178  0.000000000 -0.674095587
C  1.203662514  0.000000000  0.715897074
C  0.000000000  0.000000000  1.411007869
F -2.355359841  0.000000000 -1.339217250
F  2.355359841  0.000000000 -1.339217250
H -2.139106687  0.000000000  1.255505286
H  0.000000000  0.000000000 -2.449057270
H  2.139106687  0.000000000  1.255505286
H  0.000000000  0.000000000  2.490999268
