18
napthalene -378.67642
C  0.000000000  2.416360005 -0.695873091
C  0.000000000  2.416360005  0.695873091
C  0.000000000  1.217748653  1.402824099
C  0.000000000  0.000000000  0.719457743
C  0.000000000  0.000000000 -0.719457743
C  0.000000000  1.217748653 -1.402824099
C  0.000000000 -1.217748653  1.402824099
C  0.000000000 -2.416360005  0.695873091
C  0.000000000 -2.416360005 -0.695873091
C  0.000000000 -1.217748653 -1.402824099
H  0.000000000  3.354535880 -1.231468080
H  0.000000000  3.354535880  1.231468080
H  0.000000000  1.250843020  2.484218276
H  0.000000000  1.250843020 -2.484218276
H  0.000000000 -1.250843020  2.484218276
H  0.000000000 -3.354535880  1.231468080
H  0.000000000 -3.354535880 -1.231468080
H  0.000000000 -1.250843020 -2.484218276
